6
fragment indole2
CD2 -0.7177931273 1.1774244087 0.0062330425 14
CE2 0.6403340065 1.2089823669 0.0034798615 13
CE3 -1.4229345874 -0.0021093111 -0.0091709764 38
CZ2 1.4225516594 0.0818291321 -0.0085537922 37
CZ3 -0.6604216685 -1.1608143848 0.0037532506 37
CH2 0.7322664215 -1.1205439478 0.0050106386 37
